
/*--------------------------------*- C++ -*----------------------------------*\
| =========                 |                                                 |
| \\      /  F ield         | OpenFOAM: The Open Source CFD Toolbox           |
|  \\    /   O peration     | Version:  2.3.0                                 |
|   \\  /    A nd           | Web:      www.OpenFOAM.org                      |
|    \\/     M anipulation  |                                                 |
\*---------------------------------------------------------------------------*/
FoamFile
{
	version 2.0;
	format ascii;
	class dictionary;
	object blockMeshDict;
}


// * * * * * * * * * * * * * * * * * * * * * * * * * * * * * * * * * * * * * //
convertToMeters 1;

vertices 
(
	 (0.0 0.0 0.0)
 	 (1.0 0.0 0.0)
 	 (1.0 1.0 0.0)
 	 (0.0 1.0 0.0)
 	 (0.0 0.0 1.0)
 	 (1.0 0.0 1.0)
 	 (1.0 1.0 1.0)
 	 (0.0 1.0 1.0)

);

blocks 
(
	hex ( 0  1  2  3  4  5  6 7)  (20 16 12) simpleGrading  (1.0 1.0 1.0)
);

edges 
(
);

boundary 
(
	min_X_Plane
    {
        type patch;
        faces
        (
            (0 4 7 3)
        );
    }
    max_X_Plane
    {
        type patch;
        faces
        (
            (1 2 6 5)
        );
    }
    min_Y_Plane
    {
        type patch;
        faces
        (
            (0 1 5 4)
        );
    }
    max_Y_Plane
    {
        type patch;
        faces
        (
            (3 7 6 2)
        );
    }
    min_Z_Plane
    {
        type patch;
        faces
        (
            (0 3 2 1)
        );
    }
    max_Z_Plane
    {
        type patch;
        faces
        (
            (4 5 6 7)
        );
    }
);
