/*--------------------------------*- C++ -*----------------------------------*\
| =========                 |                                                 |
| \\      /  F ield         | OpenFOAM: The Open Source CFD Toolbox           |
|  \\    /   O peration     | Version:  2.3.0                                 |
|   \\  /    A nd           | Web:      www.OpenFOAM.org                      |
|    \\/     M anipulation  |                                                 |
\*---------------------------------------------------------------------------*/
FoamFile
{
    version     2.0;
    format      ascii;
    class       dictionary;
    location    "system";
    object      fvSolution;
}
// * * * * * * * * * * * * * * * * * * * * * * * * * * * * * * * * * * * * * //

solvers
{
    p
    {
        solver          GAMG;
        tolerance       1e-07;
        relTol          0.01;
        smoother        GaussSeidel;
        nPreSweeps       0;
        nPostSweeps      2;
        cacheAgglomeration on;
        nCellsInCoarsestLevel 10;
        agglomerator    faceAreaPair;
        mergeLevels     1;
    }

    // p
    // {
    //     solver          PCG;
    //     preconditioner  DIC;
    //     tolerance        1e-7;
    //     relTol           0.01;
    // }

    U
    {
        solver          smoothSolver;
        smoother        GaussSeidel;
        nSweeps         1;
        tolerance       1e-08;
        relTol          0.1;
    }

    e
    {
        solver          smoothSolver;
        smoother        symGaussSeidel;
        nSweeps         1;
        tolerance       1e-08;
        relTol          0.1;
    }

    h
    {
        solver          smoothSolver;
        smoother        symGaussSeidel;
        nSweeps         1;
        tolerance       1e-08;
        relTol          0.1;
    }

    "(k|epsilon|omega)"
    {
        solver          smoothSolver;
        smoother        GaussSeidel;
        nSweeps         1;
        tolerance       1e-08;
        relTol          0.1;
    }

    cellDisplacement
    {
        solver          GAMG;
        tolerance       1e-08;
        relTol          0;
        smoother        GaussSeidel;
        cacheAgglomeration true;
        nCellsInCoarsestLevel 10;
        agglomerator    faceAreaPair;
        mergeLevels     1;
    }

    "(cellMotionU|cellMotionUz)"
    {
        solver          PCG;
        preconditioner  DIC;
        tolerance       1e-06;
        relTol          0;
        tolerance       1e-08;
        relTol          0;
    }
}

potentialFlow {
    nNonOrthogonalCorrectors 30;
}

SIMPLE
{
    nNonOrthogonalCorrectors 0;
    rhoMin          rhoMin [ 1 -3 0 0 0 ] 0.5;
    rhoMax          rhoMax [ 1 -3 0 0 0 ] 1.5;

    // residualControl
    // {
    //     p               1e-2;
    //     U               1e-4;
    //     e               1e-3;

    //     // possibly check turbulence fields
    //     "(k|epsilon|omega)" 1e-3;
    // }
}

PISO
{
    nCorrectors     2;
    nNonOrthogonalCorrectors 0;
    pRefCell        0;
    pRefValue       0;
}

relaxationFactors
{
    fields
    {
        p               0.3;
        rho             0.3;
    }
    equations
    {
        U               0.7;
        "(k|epsilon|omega)"   0.7;
        e               0.7;
        h               0.7;
    }
}

cache
{
    grad(U);
}


// ************************************************************************* //
